AeroDyn                          Client                           Turbine                          RD                               Hub Height
V - Dev                          ARPA-E                           10                               178.3                            119
--- GENERAL OPTIONS ---
False                            Echo                             Echo the input to "<rootname>.AD.ech"?  (flag)
DEFAULT                          DTAero                           Time interval for aerodynamic calculations {or "default"} (s)
1                                WakeMod                          Type of wake/induction model (switch) {0=none, 1=BEMT, 3=OLAF}
2                                AFAeroMod                        Type of blade airfoil aerodynamics model (switch) {1=steady model, 2=Beddoes-Leishman unsteady model}
0                                TwrPotent                        Type tower influence on wind based on potential flow around the tower (switch) {0=none, 1=baseline potential flow, 2=potential flow with Bak correction}
0                                TwrShadow                        Calculate tower influence on wind based on downstream tower shadow (switch) {0=none, 1=Powles model, 2=Eames model}
True                             TwrAero                          Calculate tower aerodynamic loads? (flag)
False                            FrozenWake                       Assume frozen wake during linearization? (flag) [used only when WakeMod=1 and when linearizing]
False                            CavitCheck                       Perform cavitation check? (flag) [AFAeroMod must be 1 when CavitCheck=true]
False                            CompAA                           Flag to compute AeroAcoustics calculation [only used when WakeMod=1 or 2]
"AA.inp"                         AA_InputFile                     Aeroacoustics input file
--- Environmental Conditions ---
1.225                            AirDens                          Air density (kg/m^3)
0.00001464                       KinVisc                          Kinematic air viscosity (m^2/s)
335                              SpdSound                         Speed of sound (m/s)
103500                           Patm                             Atmospheric pressure (Pa) [used only when CavitCheck=True]
1700                             Pvap                             Vapour pressure of fluid (Pa) [used only when CavitCheck=True]
0.5                              FluidDepth                       Water depth above mid-hub height (m) [used only when CavitCheck=True]
--- Blade-Element/Momentum Theory Options ---
2                                SkewMod                          Type of skewed-wake correction model (switch) {1=uncoupled, 2=Pitt/Peters, 3=coupled} [used only when WakeMod=1]
DEFAULT                          SkewModFactor                    Constant used in Pitt/Peters skewed wake model {or "default" is 15/32*pi} (-) [used only when SkewMod=2; unused when WakeMod=0]
True                             TipLoss                          Use the Prandtl tip-loss model? (flag) [used only when WakeMod=1]
True                             HubLoss                          Use the Prandtl hub-loss model? (flag) [used only when WakeMod=1]
True                             TanInd                           Include tangential induction in BEMT calculations? (flag) [used only when WakeMod=1]
False                            AIDrag                           Include the drag term in the axial-induction calculation? (flag) [used only when WakeMod=1]
False                            TIDrag                           Include the drag term in the tangential-induction calculation? (flag) [used only when WakeMod=1 and TanInd=TRUE]
DEFAULT                          IndToler                         Convergence tolerance for BEMT nonlinear solve residual equation {or "default"} (-) [used only when WakeMod=1]
100                              MaxIter                          Maximum number of iteration steps (-) [used only when WakeMod=1]
--- Dynamic Blade-Element/Momentum Theory Options ---
2                                DBEMT_Mod                        Type of dynamic BEMT (DBEMT) model {1=constant tau1, 2=time-dependent tau1} (-) [used only when WakeMod=2]
4                                tau1_const                       Time constant for DBEMT (s) [used only when WakeMod=2 and DBEMT_Mod=1]
--- OLAF > cOnvecting LAgrangian Filaments (Free Vortex Wake) Theory Options ---
"OLAF.inp"                       OLAFInputFileName                Input file for OLAF [used only when WakeMod=3]
--- Beddoes-Leishman Unsteady Airfoil Aerodynamics Options ---
3                                UAMod                            Unsteady Aero Model Switch (switch) {1=Baseline model (Original), 2=Gonzalez’s variant (changes in Cn,Cc,Cm), 3=Minemma/Pierce variant (changes in Cc and Cm)} [used only when AFAeroMod=2]
True                             FLookup                          Flag to indicate whether a lookup for f' will be calculated (TRUE) or whether best-fit exponential equations will be used (FALSE); if FALSE S1-S4 must be provided in airfoil input files (flag) [used only when AFAeroMod=2]
--- Airfoil Information ---
1                                AFTabMod                         Interpolation method for multiple airfoil tables {1=1D interpolation on AoA (first table only); 2=2D interpolation on AoA and Re; 3=2D interpolation on AoA and UserProp} (-)
1                                InCol_Alfa                       The column in the airfoil tables that contains the angle of attack (-)
2                                InCol_Cl                         The column in the airfoil tables that contains the lift coefficient (-)
3                                InCol_Cd                         The column in the airfoil tables that contains the drag coefficient (-)
4                                InCol_Cm                         The column in the airfoil tables that contains the pitching-moment coefficient; use zero if there is no Cm column (-)
0                                InCol_Cpmin                      The column in the airfoil tables that contains the Cpmin coefficient; use zero if there is no Cpmin column (-)
6                                NumAFfiles                       Number of airfoil files used (-)
"ModelData/Aero/Cylinder.dat"     AFNames                          Airfoil file names (NumAFfiles lines) (quoted strings)
"ModelData/Aero/FFA_W3_600.dat"
"ModelData/Aero/FFA_W3_480.dat"
"ModelData/Aero/FFA_W3_360.dat"
"ModelData/Aero/FFA_W3_301.dat"
"ModelData/Aero/FFA_W3_241.dat"
--- Rotor/Blade Properties ---
True                             UseBlCm                          Include aerodynamic pitching moment in calculations?  (flag)
"AeroDyn_Blade.dat"              ADBlFile(1)                      Name of file containing distributed aerodynamic properties for Blade #1 (-)
"AeroDyn_Blade.dat"              ADBlFile(2)                      Name of file containing distributed aerodynamic properties for Blade #2 (-) [unused if NumBl < 2]
"AeroDyn_Blade.dat"              ADBlFile(3)                      Name of file containing distributed aerodynamic properties for Blade #3 (-) [unused if NumBl < 3]
--- Tower Influence and Aerodynamics ---
18                               NumTwrNds                        Number of tower nodes used in the analysis  (-) [used only when TwrPotent/=0, TwrShadow=True, or TwrAero=True]
TwrElev                          TwrDiam                          TwrCd                            TwrTI
(m)                              (m)                              (-)                              (-)
12                               8                                0.7                              0.1
23                               7.743                            0.7                              0.1
23.001                           7.743                            0.7                              0.1
34.5                             7.465                            0.7                              0.1
34.501                           7.465                            0.7                              0.1
46                               7.186                            0.7                              0.1
46.001                           7.186                            0.7                              0.1
57.5                             6.908                            0.7                              0.1
57.501                           6.908                            0.7                              0.1
69                               6.629                            0.7                              0.1
69.001                           6.629                            0.7                              0.1
80.5                             6.351                            0.7                              0.1
80.501                           6.351                            0.7                              0.1
92                               6.072                            0.7                              0.1
92.001                           6.072                            0.7                              0.1
103.5                            5.794                            0.7                              0.1
103.501                          5.794                            0.7                              0.1
115.63                           5.5                              0.7                              0.1
--- Outputs ---
False                            SumPrint                         Generate a summary file listing input options and interpolated properties to "<rootname>.AD.sum"?  (flag)
0                                NBlOuts                          Number of blade node outputs [0 - 9] (-)
2, 4, 6, 8, 10, 12, 16, 20       BlOutNd                          Blade nodes whose values will be output  (-)
0                                NTwOuts                          Number of tower node outputs [0 - 9]  (-)
1, 2, 6                          TwOutNd                          Tower nodes whose values will be output  (-)
                                 OutList                          The next line(s) contains a list of output parameters.  See OutListParameters.xlsx for a listing of available output channels, (-)
"RtAeroCp"
"RtAeroCq"
"RtAeroCt"
"RtAeroFxh"
"RtAeroFyh"
"RtAeroFzh"
"RtAeroMxh"
"RtAeroMyh"
"RtAeroMzh"
"RtAeroPwr"
"RtArea"
"RtSkew"
"RtSpeed"
"RtTSR"
"RtVAvgxh"
"RtVAvgyh"
"RtVAvgzh"
"B1N9AxInd"
"B2N9AxInd"
"B3N9AxInd"
"B1N1AxInd"
"B2N1AxInd"
"B3N1AxInd"
"B1N9Alpha"
"B2N9Alpha"
"B3N9Alpha"
"B1N1Alpha"
"B2N1Alpha"
"B3N1Alpha"
END of input file (the word "END" must appear in the first 3 columns of this last OutList line)
